9815161
  -OEChem-10031707062D

 33 36  0     0  0  0  0  0  0999 V2000
    6.0682   -0.5530    0.0000 O   0  0  0  0  0  0  0  0  0  0  0  0
    4.3198   -1.5876    0.0000 O   0  0  0  0  0  0  0  0  0  0  0  0
    6.0682    2.4470    0.0000 O   0  0  0  0  0  0  0  0  0  0  0  0
    2.5381   -0.5771    0.0000 O   0  0  0  0  0  0  0  0  0  0  0  0
   12.0622   -1.0530    0.0000 O   0  0  0  0  0  0  0  0  0  0  0  0
   10.4786   -0.2482    0.0000 N   0  0  0  0  0  0  0  0  0  0  0  0
   10.4786   -1.8577    0.0000 N   0  0  0  0  0  0  0  0  0  0  0  0
    7.8003   -0.5530    0.0000 C   0  0  0  0  0  0  0  0  0  0  0  0
    9.5323   -0.5530    0.0000 C   0  0  0  0  0  0  0  0  0  0  0  0
    9.5323   -1.5530    0.0000 C   0  0  0  0  0  0  0  0  0  0  0  0
    6.9343   -0.0530    0.0000 C   0  0  0  0  0  0  0  0  0  0  0  0
    8.6663   -0.0530    0.0000 C   0  0  0  0  0  0  0  0  0  0  0  0
    5.2022    0.9470    0.0000 C   0  0  0  0  0  0  0  0  0  0  0  0
    5.2022   -0.0530    0.0000 C   0  0  0  0  0  0  0  0  0  0  0  0
    7.8003   -1.5530    0.0000 C   0  0  0  0  0  0  0  0  0  0  0  0
    8.6663   -2.0530    0.0000 C   0  0  0  0  0  0  0  0  0  0  0  0
    6.9343    0.9470    0.0000 C   0  0  0  0  0  0  0  0  0  0  0  0
    6.0682    1.4470    0.0000 C   0  0  0  0  0  0  0  0  0  0  0  0
    4.3083   -0.5876    0.0000 C   0  0  0  0  0  0  0  0  0  0  0  0
   11.0622   -1.0530    0.0000 C   0  0  0  0  0  0  0  0  0  0  0  0
    4.3083    1.4817    0.0000 C   0  0  0  0  0  0  0  0  0  0  0  0
    3.4022   -0.0738    0.0000 C   0  0  0  0  0  0  0  0  0  0  0  0
    3.4022    0.9678    0.0000 C   0  0  0  0  0  0  0  0  0  0  0  0
    8.6663    0.5670    0.0000 H   0  0  0  0  0  0  0  0  0  0  0  0
    7.2634   -1.8630    0.0000 H   0  0  0  0  0  0  0  0  0  0  0  0
    8.6663   -2.6730    0.0000 H   0  0  0  0  0  0  0  0  0  0  0  0
    7.4712    1.2570    0.0000 H   0  0  0  0  0  0  0  0  0  0  0  0
   10.6712    0.3411    0.0000 H   0  0  0  0  0  0  0  0  0  0  0  0
   10.6712   -2.4470    0.0000 H   0  0  0  0  0  0  0  0  0  0  0  0
    4.3154    2.1016    0.0000 H   0  0  0  0  0  0  0  0  0  0  0  0
    2.8665    1.2799    0.0000 H   0  0  0  0  0  0  0  0  0  0  0  0
    3.7865   -1.9038    0.0000 H   0  0  0  0  0  0  0  0  0  0  0  0
    2.0000   -0.2692    0.0000 H   0  0  0  0  0  0  0  0  0  0  0  0
  1 11  1  0  0  0  0
  1 14  1  0  0  0  0
  2 19  1  0  0  0  0
  2 32  1  0  0  0  0
  3 18  2  0  0  0  0
  4 22  1  0  0  0  0
  4 33  1  0  0  0  0
  5 20  2  0  0  0  0
  6  9  1  0  0  0  0
  6 20  1  0  0  0  0
  6 28  1  0  0  0  0
  7 10  1  0  0  0  0
  7 20  1  0  0  0  0
  7 29  1  0  0  0  0
  8 11  1  0  0  0  0
  8 12  2  0  0  0  0
  8 15  1  0  0  0  0
  9 10  2  0  0  0  0
  9 12  1  0  0  0  0
 10 16  1  0  0  0  0
 11 17  2  0  0  0  0
 12 24  1  0  0  0  0
 13 14  2  0  0  0  0
 13 18  1  0  0  0  0
 13 21  1  0  0  0  0
 14 19  1  0  0  0  0
 15 16  2  0  0  0  0
 15 25  1  0  0  0  0
 16 26  1  0  0  0  0
 17 18  1  0  0  0  0
 17 27  1  0  0  0  0
 19 22  2  0  0  0  0
 21 23  2  0  0  0  0
 21 30  1  0  0  0  0
 22 23  1  0  0  0  0
 23 31  1  0  0  0  0
M  END
> <PUBCHEM_COMPOUND_CID>
9815161

> <PUBCHEM_COMPOUND_CANONICALIZED>
1

> <PUBCHEM_CACTVS_COMPLEXITY>
563

> <PUBCHEM_CACTVS_HBOND_ACCEPTOR>
5

> <PUBCHEM_CACTVS_HBOND_DONOR>
4

> <PUBCHEM_CACTVS_ROTATABLE_BOND>
1

> <PUBCHEM_CACTVS_SUBSKEYS>
AAADccB7OAAAAAAAAAAAAAAAAAAAAWAAAAAwYIAAAAAAAFiBQAAAHgAQCAAADAyBmAAxxoLABgCIAqRSUACCCAAlIgAIiAEG/MiNZzbGtZuWeWvt9BdL+ae6/L/OKAABSAAIQCBQAAKQABCAQAAAAAAAAA==

> <PUBCHEM_IUPAC_OPENEYE_NAME>
5-(7,8-dihydroxy-4-oxo-chromen-2-yl)-1,3-dihydrobenzimidazol-2-one

> <PUBCHEM_IUPAC_CAS_NAME>
5-(7,8-dihydroxy-4-oxo-1-benzopyran-2-yl)-1,3-dihydrobenzimidazol-2-one

> <PUBCHEM_IUPAC_NAME>
5-(7,8-dihydroxy-4-oxochromen-2-yl)-1,3-dihydrobenzimidazol-2-one

> <PUBCHEM_IUPAC_SYSTEMATIC_NAME>
5-[7,8-bis(oxidanyl)-4-oxidanylidene-chromen-2-yl]-1,3-dihydrobenzimidazol-2-one

> <PUBCHEM_IUPAC_TRADITIONAL_NAME>
5-(7,8-dihydroxy-4-keto-chromen-2-yl)-1,3-dihydrobenzimidazol-2-one

> <PUBCHEM_IUPAC_INCHI>
InChI=1S/C16H10N2O5/c19-11-4-2-8-12(20)6-13(23-15(8)14(11)21)7-1-3-9-10(5-7)18-16(22)17-9/h1-6,19,21H,(H2,17,18,22)

> <PUBCHEM_IUPAC_INCHIKEY>
PSKLHWFPZCSSBB-UHFFFAOYSA-N

> <PUBCHEM_XLOGP3_AA>
1.1

> <PUBCHEM_EXACT_MASS>
310.059

> <PUBCHEM_MOLECULAR_FORMULA>
C16H10N2O5

> <PUBCHEM_MOLECULAR_WEIGHT>
310.265

> <PUBCHEM_OPENEYE_CAN_SMILES>
C1=CC2=C(C=C1C3=CC(=O)C4=C(O3)C(=C(C=C4)O)O)NC(=O)N2

> <PUBCHEM_OPENEYE_ISO_SMILES>
C1=CC2=C(C=C1C3=CC(=O)C4=C(O3)C(=C(C=C4)O)O)NC(=O)N2

> <PUBCHEM_CACTVS_TPSA>
108

> <PUBCHEM_MONOISOTOPIC_WEIGHT>
310.059

> <PUBCHEM_TOTAL_CHARGE>
0

> <PUBCHEM_HEAVY_ATOM_COUNT>
23

> <PUBCHEM_ATOM_DEF_STEREO_COUNT>
0

> <PUBCHEM_ATOM_UDEF_STEREO_COUNT>
0

> <PUBCHEM_BOND_DEF_STEREO_COUNT>
0

> <PUBCHEM_BOND_UDEF_STEREO_COUNT>
0

> <PUBCHEM_ISOTOPIC_ATOM_COUNT>
0

> <PUBCHEM_COMPONENT_COUNT>
1

> <PUBCHEM_CACTVS_TAUTO_COUNT>
149

> <PUBCHEM_COORDINATE_TYPE>
1
5
255

> <PUBCHEM_BONDANNOTATIONS>
1  11  8
1  14  8
10  16  8
11  17  8
13  14  8
13  18  8
13  21  8
14  19  8
15  16  8
17  18  8
19  22  8
21  23  8
22  23  8
6  20  8
6  9  8
7  10  8
7  20  8
8  12  8
8  15  8
9  10  8
9  12  8

$$$$

  CDK    9/16/09,9:56

 30 34  0  0  0  0  0  0  0  0999 V2000
    9.9944  -10.5791    0.0000 C   0  0  0  0  0  0  0  0  0  0  0  0
    9.9932  -11.4065    0.0000 C   0  0  0  0  0  0  0  0  0  0  0  0
   10.7081  -11.8194    0.0000 C   0  0  0  0  0  0  0  0  0  0  0  0
   10.7063  -10.1664    0.0000 C   0  0  0  0  0  0  0  0  0  0  0  0
   11.4216  -10.5755    0.0000 C   0  0  0  0  0  0  0  0  0  0  0  0
   11.4251  -11.4086    0.0000 C   0  0  0  0  0  0  0  0  0  0  0  0
   12.1442  -11.8199    0.0000 N   0  0  0  0  0  0  0  0  0  0  0  0
   12.8646  -11.4027    0.0000 C   0  0  0  0  0  0  0  0  0  0  0  0
   12.8612  -10.5696    0.0000 C   0  0  0  0  0  0  0  0  0  0  0  0
   12.1374  -10.1537    0.0000 C   0  0  0  0  0  0  0  0  0  0  0  0
   13.5802  -11.8132    0.0000 O   0  0  0  0  0  0  0  0  0  0  0  0
   13.5692  -10.1568    0.0000 C   0  0  0  0  0  0  0  0  0  0  0  0
   14.3239  -10.4900    0.0000 N   0  0  0  0  0  0  0  0  0  0  0  0
   13.6530   -9.3361    0.0000 N   0  0  0  0  0  0  0  0  0  0  0  0
   14.4593   -9.1619    0.0000 C   0  0  0  0  0  0  0  0  0  0  0  0
   14.8716   -9.8743    0.0000 C   0  0  0  0  0  0  0  0  0  0  0  0
   15.6928   -9.8724    0.0000 C   0  0  0  0  0  0  0  0  0  0  0  0
   16.1027   -9.1589    0.0000 C   0  0  0  0  0  0  0  0  0  0  0  0
   15.6853   -8.4458    0.0000 C   0  0  0  0  0  0  0  0  0  0  0  0
   14.8655   -8.4512    0.0000 C   0  0  0  0  0  0  0  0  0  0  0  0
   12.1329   -9.3287    0.0000 N   0  0  0  0  0  0  0  0  0  0  0  0
   16.0934   -7.7288    0.0000 N   0  0  0  0  0  0  0  0  0  0  0  0
   16.9152   -7.7275    0.0000 C   0  0  0  0  0  0  0  0  0  0  0  0
   17.3231   -7.0146    0.0000 C   0  0  0  0  0  0  0  0  0  0  0  0
   16.9097   -6.3003    0.0000 N   0  0  0  0  0  0  0  0  0  0  0  0
   16.0837   -6.3034    0.0000 C   0  0  0  0  0  0  0  0  0  0  0  0
   15.6712   -7.0209    0.0000 C   0  0  0  0  0  0  0  0  0  0  0  0
   17.3204   -5.5848    0.0000 C   0  0  0  0  0  0  0  0  0  0  0  0
   10.7038   -9.3414    0.0000 N   0  0  0  0  0  0  0  0  0  0  0  0
   11.4170   -8.9267    0.0000 C   0  0  0  0  0  0  0  0  0  0  0  0
 14 12  2  0  0  0  0 
  9 12  1  0  0  0  0 
  1  2  2  0  0  0  0 
  5  4  2  0  0  0  0 
 15 16  2  0  0  0  0 
  4  1  1  0  0  0  0 
 16 17  1  0  0  0  0 
  5 10  1  0  0  0  0 
 17 18  2  0  0  0  0 
  6  7  1  0  0  0  0 
 18 19  1  0  0  0  0 
  7  8  1  0  0  0  0 
 19 20  2  0  0  0  0 
 20 15  1  0  0  0  0 
  8  9  1  0  0  0  0 
 10 21  1  0  0  0  0 
  9 10  2  0  0  0  0 
 19 22  1  0  0  0  0 
 22 23  1  0  0  0  0 
  5  6  1  0  0  0  0 
  8 11  2  0  0  0  0 
 12 13  1  0  0  0  0 
  2  3  1  0  0  0  0 
 22 27  1  0  0  0  0 
 23 24  1  0  0  0  0 
 24 25  1  0  0  0  0 
 25 26  1  0  0  0  0 
 26 27  1  0  0  0  0 
  3  6  2  0  0  0  0 
 25 28  1  0  0  0  0 
 13 16  1  0  0  0  0 
  4 29  1  0  0  0  0 
 15 14  1  0  0  0  0 
 29 30  1  0  0  0  0 
M  END
> <chembl_id>
CHEMBL496762

$$$$