102023954
  -OEChem-10171715442D

 21 19  0     1  0  0  0  0  0999 V2000
    2.5981    1.1200    0.0000 S   0  0  3  0  0  0  0  0  0  0  0  0
    2.0981    1.9860    0.0000 O   0  4  0  0  0  0  0  0  0  0  0  0
    3.0981    0.2540    0.0000 O   0  0  0  0  0  0  0  0  0  0  0  0
    0.0000    1.6200    0.0000 N   0  0  0  0  0  0  0  0  0  0  0  0
    3.4641    1.6200    0.0000 C   0  0  0  0  0  0  0  0  0  0  0  0
    4.3301    2.1200    0.0000 C   0  0  0  0  0  0  0  0  0  0  0  0
    2.9641    2.4860    0.0000 C   0  0  0  0  0  0  0  0  0  0  0  0
    3.9641    0.7540    0.0000 C   0  0  0  0  0  0  0  0  0  0  0  0
    1.7320    0.6200    0.0000 C   0  0  0  0  0  0  0  0  0  0  0  0
    0.8660    1.1200    0.0000 C   0  0  0  0  0  0  0  0  0  0  0  0
    2.1835    5.0230    0.0000 Li  0  4  0  0  0  0  0  0  0  0  0  0
    3.4272    0.4440    0.0000 H   0  0  0  0  0  0  0  0  0  0  0  0
    4.2741    0.2170    0.0000 H   0  0  0  0  0  0  0  0  0  0  0  0
    4.5010    1.0640    0.0000 H   0  0  0  0  0  0  0  0  0  0  0  0
    4.6401    1.5831    0.0000 H   0  0  0  0  0  0  0  0  0  0  0  0
    4.8671    2.4300    0.0000 H   0  0  0  0  0  0  0  0  0  0  0  0
    4.0201    2.6569    0.0000 H   0  0  0  0  0  0  0  0  0  0  0  0
    3.5010    2.7960    0.0000 H   0  0  0  0  0  0  0  0  0  0  0  0
    2.6541    3.0230    0.0000 H   0  0  0  0  0  0  0  0  0  0  0  0
    2.4272    2.1760    0.0000 H   0  0  0  0  0  0  0  0  0  0  0  0
    1.7320    0.0000    0.0000 H   0  0  0  0  0  0  0  0  0  0  0  0
  1  2  1  0  0  0  0
  1  3  2  0  0  0  0
  1  5  1  0  0  0  0
  1  9  2  0  0  0  0
  4 10  3  0  0  0  0
  5  6  1  0  0  0  0
  5  7  1  0  0  0  0
  5  8  1  0  0  0  0
  6 15  1  0  0  0  0
  6 16  1  0  0  0  0
  6 17  1  0  0  0  0
  7 18  1  0  0  0  0
  7 19  1  0  0  0  0
  7 20  1  0  0  0  0
  8 12  1  0  0  0  0
  8 13  1  0  0  0  0
  8 14  1  0  0  0  0
  9 10  1  0  0  0  0
  9 21  1  0  0  0  0
M  RAD  2   2   2  11   2
M  END
> <PUBCHEM_COMPOUND_CID>
102023954

> <PUBCHEM_COMPOUND_CANONICALIZED>
1

> <PUBCHEM_CACTVS_COMPLEXITY>
259

> <PUBCHEM_CACTVS_HBOND_ACCEPTOR>
2

> <PUBCHEM_CACTVS_HBOND_DONOR>
0

> <PUBCHEM_CACTVS_ROTATABLE_BOND>
1

> <PUBCHEM_CACTVS_SUBSKEYS>
AAADcchiMABAAAAAAAAAAAAAAAAAAAAAAAAAAAAAAAAAAAAAAAAAHAQAAAAADACFQACCAAAAAAoUBAAAAGBAAAAAAAAAAAAAAAAAAAAAAAAAAAAAAAAAAAAAAAAAAAAAAAAAAAAAAAAAAAAAAAAAAAAAAA==

> <PUBCHEM_IUPAC_OPENEYE_NAME>
2-(tert-butyl-$l^{1}-oxidanyl-oxo-$l^{6}-sulfanylidene)acetonitrile;lithium

> <PUBCHEM_IUPAC_CAS_NAME>
2-(tert-butyl-$l^{1}-oxidanyl-oxo-$l^{6}-sulfanylidene)acetonitrile;lithium

> <PUBCHEM_IUPAC_NAME>
2-(tert-butyl-$l^{1}-oxidanyl-oxo-$l^{6}-sulfanylidene)acetonitrile;lithium

> <PUBCHEM_IUPAC_SYSTEMATIC_NAME>
2-(tert-butyl-$l^{1}-oxidanyl-oxidanylidene-$l^{6}-sulfanylidene)ethanenitrile;lithium

> <PUBCHEM_IUPAC_TRADITIONAL_NAME>
2-(tert-butyl-keto-$l^{1}-oxidanyl-persulfuranylidene)acetonitrile;lithium

> <PUBCHEM_IUPAC_INCHI>
InChI=1S/C6H10NO2S.Li/c1-6(2,3)10(8,9)5-4-7;/h5H,1-3H3;

> <PUBCHEM_IUPAC_INCHIKEY>
KWSONDWGHSVPAK-UHFFFAOYSA-N

> <PUBCHEM_EXACT_MASS>
167.059

> <PUBCHEM_MOLECULAR_FORMULA>
C6H10LiNO2S

> <PUBCHEM_MOLECULAR_WEIGHT>
167.151

> <PUBCHEM_OPENEYE_CAN_SMILES>
[Li].CC(C)(C)S(=CC#N)(=O)[O]

> <PUBCHEM_OPENEYE_ISO_SMILES>
[Li].CC(C)(C)S(=CC#N)(=O)[O]

> <PUBCHEM_CACTVS_TPSA>
50.2

> <PUBCHEM_MONOISOTOPIC_WEIGHT>
167.059

> <PUBCHEM_TOTAL_CHARGE>
0

> <PUBCHEM_HEAVY_ATOM_COUNT>
11

> <PUBCHEM_ATOM_DEF_STEREO_COUNT>
0

> <PUBCHEM_ATOM_UDEF_STEREO_COUNT>
1

> <PUBCHEM_BOND_DEF_STEREO_COUNT>
0

> <PUBCHEM_BOND_UDEF_STEREO_COUNT>
0

> <PUBCHEM_ISOTOPIC_ATOM_COUNT>
0

> <PUBCHEM_COMPONENT_COUNT>
2

> <PUBCHEM_CACTVS_TAUTO_COUNT>
1

> <PUBCHEM_COORDINATE_TYPE>
1
5
255

> <PUBCHEM_BONDANNOTATIONS>
1  2  3

$$$$
71717486
  -OEChem-10191700592D

134140  0     1  0  0  0  0  0999 V2000
    3.0000   -9.1814    0.0000 S   0  0  0  0  0  0  0  0  0  0  0  0
    9.8401    3.9127    0.0000 O   0  0  0  0  0  0  0  0  0  0  0  0
   10.7003    4.4227    0.0000 O   0  0  0  0  0  0  0  0  0  0  0  0
    7.2712    1.3828    0.0000 O   0  0  0  0  0  0  0  0  0  0  0  0
   10.2450    0.5512    0.0000 O   0  0  0  0  0  0  0  0  0  0  0  0
   13.2693    6.9526    0.0000 O   0  0  0  0  0  0  0  0  0  0  0  0
    5.5739   -1.6370    0.0000 O   0  0  0  0  0  0  0  0  0  0  0  0
    8.0735    6.8925    0.0000 O   0  0  0  0  0  0  0  0  0  0  0  0
    8.1776   -2.1069    0.0000 O   0  0  0  0  0  0  0  0  0  0  0  0
   15.0128    5.9727    0.0000 O   0  0  0  0  0  0  0  0  0  0  0  0
    3.0000  -10.1814    0.0000 O   0  0  0  0  0  0  0  0  0  0  0  0
    2.0000   -9.1814    0.0000 O   0  0  0  0  0  0  0  0  0  0  0  0
    4.0000   -9.1814    0.0000 O   0  0  0  0  0  0  0  0  0  0  0  0
   10.7235    2.4228    0.0000 N   0  0  0  0  0  0  0  0  0  0  0  0
    9.0031    1.4029    0.0000 N   0  0  0  0  0  0  0  0  0  0  0  0
   12.4323    4.4427    0.0000 N   0  0  0  0  0  0  0  0  0  0  0  0
    9.0262   -0.5970    0.0000 N   0  0  0  0  0  0  0  0  0  0  0  0
    6.4572   -3.1269    0.0000 N   0  0  0  0  0  0  0  0  0  0  0  0
   14.1526    5.4627    0.0000 N   0  0  0  0  0  0  0  0  0  0  0  0
    4.7484   -5.1468    0.0000 N   0  0  0  0  0  0  0  0  0  0  0  0
   11.5836    2.9328    0.0000 C   0  0  2  0  0  0  0  0  0  0  0  0
    8.9915    2.4028    0.0000 C   0  0  1  0  0  0  0  0  0  0  0  0
   12.4554    2.4429    0.0000 C   0  0  0  0  0  0  0  0  0  0  0  0
    9.8517    2.9128    0.0000 C   0  0  0  0  0  0  0  0  0  0  0  0
    8.1198    2.8928    0.0000 C   0  0  0  0  0  0  0  0  0  0  0  0
   11.5721    3.9327    0.0000 C   0  0  0  0  0  0  0  0  0  0  0  0
    8.1545   -0.1070    0.0000 C   0  0  2  0  0  0  0  0  0  0  0  0
   12.4207    5.4427    0.0000 C   0  0  2  0  0  0  0  0  0  0  0  0
   13.4553    2.4544    0.0000 C   0  0  0  0  0  0  0  0  0  0  0  0
    8.1429    0.8929    0.0000 C   0  0  0  0  0  0  0  0  0  0  0  0
    7.2943   -0.6170    0.0000 C   0  0  0  0  0  0  0  0  0  0  0  0
   10.7350    1.4229    0.0000 C   0  0  0  0  0  0  0  0  0  0  0  0
   11.5489    5.9326    0.0000 C   0  0  0  0  0  0  0  0  0  0  0  0
    8.1082    3.8927    0.0000 C   0  0  0  0  0  0  0  0  0  0  0  0
    7.3058   -1.6170    0.0000 C   0  0  0  0  0  0  0  0  0  0  0  0
   11.5374    6.9325    0.0000 C   0  0  0  0  0  0  0  0  0  0  0  0
   11.6068    0.9329    0.0000 C   0  0  0  0  0  0  0  0  0  0  0  0
   13.2809    5.9526    0.0000 C   0  0  0  0  0  0  0  0  0  0  0  0
   13.9653    1.5942    0.0000 C   0  0  0  0  0  0  0  0  0  0  0  0
   13.9453    3.3262    0.0000 C   0  0  0  0  0  0  0  0  0  0  0  0
    8.9684    4.4027    0.0000 C   0  0  0  0  0  0  0  0  0  0  0  0
    7.2365    4.3826    0.0000 C   0  0  0  0  0  0  0  0  0  0  0  0
   10.6656    7.4225    0.0000 C   0  0  0  0  0  0  0  0  0  0  0  0
    6.4456   -2.1269    0.0000 C   0  0  0  0  0  0  0  0  0  0  0  0
   12.3976    7.4425    0.0000 C   0  0  0  0  0  0  0  0  0  0  0  0
   10.6541    8.4224    0.0000 C   0  0  0  0  0  0  0  0  0  0  0  0
   14.9652    1.6058    0.0000 C   0  0  0  0  0  0  0  0  0  0  0  0
   14.9452    3.3377    0.0000 C   0  0  0  0  0  0  0  0  0  0  0  0
   11.5143    8.9324    0.0000 C   0  0  0  0  0  0  0  0  0  0  0  0
   11.6183   -0.0670    0.0000 C   0  0  0  0  0  0  0  0  0  0  0  0
   12.4670    1.4429    0.0000 C   0  0  0  0  0  0  0  0  0  0  0  0
    8.9568    5.4026    0.0000 C   0  0  0  0  0  0  0  0  0  0  0  0
    7.2249    5.3826    0.0000 C   0  0  0  0  0  0  0  0  0  0  0  0
    9.0378   -1.5969    0.0000 C   0  0  0  0  0  0  0  0  0  0  0  0
   12.3860    8.4424    0.0000 C   0  0  0  0  0  0  0  0  0  0  0  0
   15.4552    2.4776    0.0000 C   0  0  0  0  0  0  0  0  0  0  0  0
    8.0851    5.8926    0.0000 C   0  0  0  0  0  0  0  0  0  0  0  0
    5.5970   -3.6369    0.0000 C   0  0  0  0  0  0  0  0  0  0  0  0
    5.6086   -4.6368    0.0000 C   0  0  0  0  0  0  0  0  0  0  0  0
    9.7383    8.9187    0.0000 C   0  0  0  0  0  0  0  0  0  0  0  0
   12.4901   -0.5569    0.0000 C   0  0  0  0  0  0  0  0  0  0  0  0
   13.3387    0.9530    0.0000 C   0  0  0  0  0  0  0  0  0  0  0  0
   11.5183    9.9740    0.0000 C   0  0  0  0  0  0  0  0  0  0  0  0
    9.9095   -2.0869    0.0000 C   0  0  0  0  0  0  0  0  0  0  0  0
   13.3503   -0.0470    0.0000 C   0  0  0  0  0  0  0  0  0  0  0  0
    4.7600   -6.1467    0.0000 C   0  0  0  0  0  0  0  0  0  0  0  0
    9.7182    9.9602    0.0000 C   0  0  0  0  0  0  0  0  0  0  0  0
    3.8660   -6.6814    0.0000 C   0  0  0  0  0  0  0  0  0  0  0  0
   10.6142   10.4914    0.0000 C   0  0  0  0  0  0  0  0  0  0  0  0
    3.8660   -7.6814    0.0000 C   0  0  0  0  0  0  0  0  0  0  0  0
    3.0000   -8.1814    0.0000 C   0  0  0  0  0  0  0  0  0  0  0  0
    5.6660   -6.6606    0.0000 C   0  0  0  0  0  0  0  0  0  0  0  0
    3.0000   -6.1814    0.0000 C   0  0  0  0  0  0  0  0  0  0  0  0
    4.7600   -8.2160    0.0000 C   0  0  0  0  0  0  0  0  0  0  0  0
    5.6660   -7.7022    0.0000 C   0  0  0  0  0  0  0  0  0  0  0  0
    2.1340   -7.6814    0.0000 C   0  0  0  0  0  0  0  0  0  0  0  0
    2.1340   -6.6814    0.0000 C   0  0  0  0  0  0  0  0  0  0  0  0
   11.5908    2.3128    0.0000 H   0  0  0  0  0  0  0  0  0  0  0  0
    9.5320    2.0990    0.0000 H   0  0  0  0  0  0  0  0  0  0  0  0
   11.9851    2.0389    0.0000 H   0  0  0  0  0  0  0  0  0  0  0  0
   12.6089    3.0436    0.0000 H   0  0  0  0  0  0  0  0  0  0  0  0
    7.5080    2.9934    0.0000 H   0  0  0  0  0  0  0  0  0  0  0  0
    7.9145    2.3077    0.0000 H   0  0  0  0  0  0  0  0  0  0  0  0
    9.3193    0.8696    0.0000 H   0  0  0  0  0  0  0  0  0  0  0  0
    8.1616   -0.7270    0.0000 H   0  0  0  0  0  0  0  0  0  0  0  0
   12.9612    5.1389    0.0000 H   0  0  0  0  0  0  0  0  0  0  0  0
   13.0522    4.4499    0.0000 H   0  0  0  0  0  0  0  0  0  0  0  0
    7.0755   -0.0369    0.0000 H   0  0  0  0  0  0  0  0  0  0  0  0
    6.6850   -0.7317    0.0000 H   0  0  0  0  0  0  0  0  0  0  0  0
   10.9372    6.0332    0.0000 H   0  0  0  0  0  0  0  0  0  0  0  0
   11.3436    5.3476    0.0000 H   0  0  0  0  0  0  0  0  0  0  0  0
    7.5246   -2.1971    0.0000 H   0  0  0  0  0  0  0  0  0  0  0  0
    7.9151   -1.5022    0.0000 H   0  0  0  0  0  0  0  0  0  0  0  0
    9.5595   -0.2808    0.0000 H   0  0  0  0  0  0  0  0  0  0  0  0
   13.6615    1.0538    0.0000 H   0  0  0  0  0  0  0  0  0  0  0  0
   13.6291    3.8595    0.0000 H   0  0  0  0  0  0  0  0  0  0  0  0
    9.5089    4.0989    0.0000 H   0  0  0  0  0  0  0  0  0  0  0  0
    6.7031    4.0664    0.0000 H   0  0  0  0  0  0  0  0  0  0  0  0
   10.1323    7.1063    0.0000 H   0  0  0  0  0  0  0  0  0  0  0  0
   12.9381    7.1388    0.0000 H   0  0  0  0  0  0  0  0  0  0  0  0
   15.2814    1.0725    0.0000 H   0  0  0  0  0  0  0  0  0  0  0  0
   15.2490    3.8782    0.0000 H   0  0  0  0  0  0  0  0  0  0  0  0
   11.0850   -0.3832    0.0000 H   0  0  0  0  0  0  0  0  0  0  0  0
   12.4598    2.0629    0.0000 H   0  0  0  0  0  0  0  0  0  0  0  0
    9.4901    5.7188    0.0000 H   0  0  0  0  0  0  0  0  0  0  0  0
    6.6844    5.6863    0.0000 H   0  0  0  0  0  0  0  0  0  0  0  0
   12.9193    8.7586    0.0000 H   0  0  0  0  0  0  0  0  0  0  0  0
   16.0751    2.4847    0.0000 H   0  0  0  0  0  0  0  0  0  0  0  0
    6.9977   -3.4306    0.0000 H   0  0  0  0  0  0  0  0  0  0  0  0
   14.1598    4.8427    0.0000 H   0  0  0  0  0  0  0  0  0  0  0  0
    5.3783   -3.0567    0.0000 H   0  0  0  0  0  0  0  0  0  0  0  0
    4.9877   -3.7516    0.0000 H   0  0  0  0  0  0  0  0  0  0  0  0
    5.8274   -5.2169    0.0000 H   0  0  0  0  0  0  0  0  0  0  0  0
    6.2179   -4.5221    0.0000 H   0  0  0  0  0  0  0  0  0  0  0  0
    9.2086    8.5964    0.0000 H   0  0  0  0  0  0  0  0  0  0  0  0
   12.4972   -1.1769    0.0000 H   0  0  0  0  0  0  0  0  0  0  0  0
   13.8720    1.2692    0.0000 H   0  0  0  0  0  0  0  0  0  0  0  0
   12.0552   10.2840    0.0000 H   0  0  0  0  0  0  0  0  0  0  0  0
    9.6058   -2.6274    0.0000 H   0  0  0  0  0  0  0  0  0  0  0  0
   10.4500   -2.3907    0.0000 H   0  0  0  0  0  0  0  0  0  0  0  0
   10.2133   -1.5464    0.0000 H   0  0  0  0  0  0  0  0  0  0  0  0
   13.8907   -0.3507    0.0000 H   0  0  0  0  0  0  0  0  0  0  0  0
    4.2079   -4.8430    0.0000 H   0  0  0  0  0  0  0  0  0  0  0  0
    9.1766   10.2618    0.0000 H   0  0  0  0  0  0  0  0  0  0  0  0
   10.6094   11.1113    0.0000 H   0  0  0  0  0  0  0  0  0  0  0  0
    6.2018   -6.3485    0.0000 H   0  0  0  0  0  0  0  0  0  0  0  0
    7.5330    7.1962    0.0000 H   0  0  0  0  0  0  0  0  0  0  0  0
    3.0000   -5.5614    0.0000 H   0  0  0  0  0  0  0  0  0  0  0  0
   15.0056    6.5926    0.0000 H   0  0  0  0  0  0  0  0  0  0  0  0
    4.7528   -8.8360    0.0000 H   0  0  0  0  0  0  0  0  0  0  0  0
    6.2018   -8.0142    0.0000 H   0  0  0  0  0  0  0  0  0  0  0  0
    1.5970   -7.9914    0.0000 H   0  0  0  0  0  0  0  0  0  0  0  0
    1.5970   -6.3714    0.0000 H   0  0  0  0  0  0  0  0  0  0  0  0
    2.4631  -10.4914    0.0000 H   0  0  0  0  0  0  0  0  0  0  0  0
  1 11  1  0  0  0  0
  1 12  2  0  0  0  0
  1 13  2  0  0  0  0
  1 71  1  0  0  0  0
  2 24  2  0  0  0  0
  3 26  2  0  0  0  0
  4 30  2  0  0  0  0
  5 32  2  0  0  0  0
  6 38  2  0  0  0  0
  7 44  2  0  0  0  0
  8 57  1  0  0  0  0
  8127  1  0  0  0  0
  9 54  2  0  0  0  0
 10 19  1  0  0  0  0
 10129  1  0  0  0  0
 11134  1  0  0  0  0
 21 14  1  1  0  0  0
 14 24  1  0  0  0  0
 14 32  1  0  0  0  0
 22 15  1  6  0  0  0
 15 30  1  0  0  0  0
 15 84  1  0  0  0  0
 16 26  1  0  0  0  0
 28 16  1  6  0  0  0
 16 87  1  0  0  0  0
 27 17  1  1  0  0  0
 17 54  1  0  0  0  0
 17 94  1  0  0  0  0
 18 44  1  0  0  0  0
 18 58  1  0  0  0  0
 18109  1  0  0  0  0
 19 38  1  0  0  0  0
 19110  1  0  0  0  0
 20 59  1  0  0  0  0
 20 66  1  0  0  0  0
 20123  1  0  0  0  0
 21 23  1  0  0  0  0
 21 26  1  0  0  0  0
 21 78  1  0  0  0  0
 22 24  1  0  0  0  0
 22 25  1  0  0  0  0
 22 79  1  0  0  0  0
 23 29  1  0  0  0  0
 23 80  1  0  0  0  0
 23 81  1  0  0  0  0
 25 34  1  0  0  0  0
 25 82  1  0  0  0  0
 25 83  1  0  0  0  0
 27 30  1  0  0  0  0
 27 31  1  0  0  0  0
 27 85  1  0  0  0  0
 28 33  1  0  0  0  0
 28 38  1  0  0  0  0
 28 86  1  0  0  0  0
 29 39  2  0  0  0  0
 29 40  1  0  0  0  0
 31 35  1  0  0  0  0
 31 88  1  0  0  0  0
 31 89  1  0  0  0  0
 32 37  1  0  0  0  0
 33 36  1  0  0  0  0
 33 90  1  0  0  0  0
 33 91  1  0  0  0  0
 34 41  2  0  0  0  0
 34 42  1  0  0  0  0
 35 44  1  0  0  0  0
 35 92  1  0  0  0  0
 35 93  1  0  0  0  0
 36 43  2  0  0  0  0
 36 45  1  0  0  0  0
 37 50  2  0  0  0  0
 37 51  1  0  0  0  0
 39 47  1  0  0  0  0
 39 95  1  0  0  0  0
 40 48  2  0  0  0  0
 40 96  1  0  0  0  0
 41 52  1  0  0  0  0
 41 97  1  0  0  0  0
 42 53  2  0  0  0  0
 42 98  1  0  0  0  0
 43 46  1  0  0  0  0
 43 99  1  0  0  0  0
 45 55  2  0  0  0  0
 45100  1  0  0  0  0
 46 49  1  0  0  0  0
 46 60  2  0  0  0  0
 47 56  2  0  0  0  0
 47101  1  0  0  0  0
 48 56  1  0  0  0  0
 48102  1  0  0  0  0
 49 55  1  0  0  0  0
 49 63  2  0  0  0  0
 50 61  1  0  0  0  0
 50103  1  0  0  0  0
 51 62  2  0  0  0  0
 51104  1  0  0  0  0
 52 57  2  0  0  0  0
 52105  1  0  0  0  0
 53 57  1  0  0  0  0
 53106  1  0  0  0  0
 54 64  1  0  0  0  0
 55107  1  0  0  0  0
 56108  1  0  0  0  0
 58 59  1  0  0  0  0
 58111  1  0  0  0  0
 58112  1  0  0  0  0
 59113  1  0  0  0  0
 59114  1  0  0  0  0
 60 67  1  0  0  0  0
 60115  1  0  0  0  0
 61 65  2  0  0  0  0
 61116  1  0  0  0  0
 62 65  1  0  0  0  0
 62117  1  0  0  0  0
 63 69  1  0  0  0  0
 63118  1  0  0  0  0
 64119  1  0  0  0  0
 64120  1  0  0  0  0
 64121  1  0  0  0  0
 65122  1  0  0  0  0
 66 68  1  0  0  0  0
 66 72  2  0  0  0  0
 67 69  2  0  0  0  0
 67124  1  0  0  0  0
 68 70  2  0  0  0  0
 68 73  1  0  0  0  0
 69125  1  0  0  0  0
 70 71  1  0  0  0  0
 70 74  1  0  0  0  0
 71 76  2  0  0  0  0
 72 75  1  0  0  0  0
 72126  1  0  0  0  0
 73 77  2  0  0  0  0
 73128  1  0  0  0  0
 74 75  2  0  0  0  0
 74130  1  0  0  0  0
 75131  1  0  0  0  0
 76 77  1  0  0  0  0
 76132  1  0  0  0  0
 77133  1  0  0  0  0
M  END
> <PUBCHEM_COMPOUND_CID>
71717486

> <PUBCHEM_COMPOUND_CANONICALIZED>
1

> <PUBCHEM_CACTVS_COMPLEXITY>
2090

> <PUBCHEM_CACTVS_HBOND_ACCEPTOR>
13

> <PUBCHEM_CACTVS_HBOND_DONOR>
9

> <PUBCHEM_CACTVS_ROTATABLE_BOND>
23

> <PUBCHEM_CACTVS_SUBSKEYS>
AAADcfB/vABAAAAAAAAAAAAAAAAAAAAAAAAwYMGDAAAAAADBVAAAHgQUCAAADCzB2AQyx8PQAoKIAiVSUHDCAEAlIgAoiJmObMgIZjLClbOUcQhk1jHI2Yecy+CO4AACwAAWAADAAAWAACwAAAAAAAAAAA==

> <PUBCHEM_IUPAC_OPENEYE_NAME>
5-[2-[[(4S)-4-acetamido-5-[[(1R)-2-[benzoyl-[(1R)-1-benzyl-2-[[(1R)-2-(hydroxyamino)-1-(2-naphthylmethyl)-2-oxo-ethyl]amino]-2-oxo-ethyl]amino]-1-[(4-hydroxyphenyl)methyl]-2-oxo-ethyl]amino]-5-oxo-pentanoyl]amino]ethylamino]naphthalene-1-sulfonic acid

> <PUBCHEM_IUPAC_CAS_NAME>
5-[2-[[(4S)-4-acetamido-5-[[(2R)-1-[benzoyl-[(2R)-1-[[(2R)-1-(hydroxyamino)-3-(2-naphthalenyl)-1-oxopropan-2-yl]amino]-1-oxo-3-phenylpropan-2-yl]amino]-3-(4-hydroxyphenyl)-1-oxopropan-2-yl]amino]-1,5-dioxopentyl]amino]ethylamino]-1-naphthalenesulfonic acid

> <PUBCHEM_IUPAC_NAME>
5-[2-[[(4S)-4-acetamido-5-[[(2R)-1-[benzoyl-[(2R)-1-[[(2R)-1-(hydroxyamino)-3-naphthalen-2-yl-1-oxopropan-2-yl]amino]-1-oxo-3-phenylpropan-2-yl]amino]-3-(4-hydroxyphenyl)-1-oxopropan-2-yl]amino]-5-oxopentanoyl]amino]ethylamino]naphthalene-1-sulfonic acid

> <PUBCHEM_IUPAC_SYSTEMATIC_NAME>
5-[2-[[(4S)-4-acetamido-5-[[(2R)-3-(4-hydroxyphenyl)-1-[[(2R)-1-[[(2R)-3-naphthalen-2-yl-1-(oxidanylamino)-1-oxidanylidene-propan-2-yl]amino]-1-oxidanylidene-3-phenyl-propan-2-yl]-(phenylcarbonyl)amino]-1-oxidanylidene-propan-2-yl]amino]-5-oxidanylidene-pentanoyl]amino]ethylamino]naphthalene-1-sulfonic acid

> <PUBCHEM_IUPAC_TRADITIONAL_NAME>
5-[2-[[(4S)-4-acetamido-5-[[(1R)-2-[benzoyl-[(1R)-1-benzyl-2-[[(1R)-2-(hydroxyamino)-2-keto-1-(2-naphthylmethyl)ethyl]amino]-2-keto-ethyl]amino]-1-(4-hydroxybenzyl)-2-keto-ethyl]amino]-5-keto-pentanoyl]amino]ethylamino]naphthalene-1-sulfonic acid

> <PUBCHEM_IUPAC_INCHI>
InChI=1S/C57H57N7O12S/c1-36(65)60-47(28-29-52(67)59-31-30-58-46-20-10-19-45-44(46)18-11-21-51(45)77(74,75)76)53(68)62-49(33-38-23-26-43(66)27-24-38)57(72)64(56(71)41-15-6-3-7-16-41)50(35-37-12-4-2-5-13-37)55(70)61-48(54(69)63-73)34-39-22-25-40-14-8-9-17-42(40)32-39/h2-27,32,47-50,58,66,73H,28-31,33-35H2,1H3,(H,59,67)(H,60,65)(H,61,70)(H,62,68)(H,63,69)(H,74,75,76)/t47-,48+,49+,50+/m0/s1

> <PUBCHEM_IUPAC_INCHIKEY>
VZHNNIDQCHBLRE-WNDGNIDMSA-N

> <PUBCHEM_XLOGP3_AA>
6.2

> <PUBCHEM_EXACT_MASS>
1063.379

> <PUBCHEM_MOLECULAR_FORMULA>
C57H57N7O12S

> <PUBCHEM_MOLECULAR_WEIGHT>
1064.18

> <PUBCHEM_OPENEYE_CAN_SMILES>
CC(=O)NC(CCC(=O)NCCNC1=CC=CC2=C1C=CC=C2S(=O)(=O)O)C(=O)NC(CC3=CC=C(C=C3)O)C(=O)N(C(CC4=CC=CC=C4)C(=O)NC(CC5=CC6=CC=CC=C6C=C5)C(=O)NO)C(=O)C7=CC=CC=C7

> <PUBCHEM_OPENEYE_ISO_SMILES>
CC(=O)N[C@@H](CCC(=O)NCCNC1=CC=CC2=C1C=CC=C2S(=O)(=O)O)C(=O)N[C@H](CC3=CC=C(C=C3)O)C(=O)N([C@H](CC4=CC=CC=C4)C(=O)N[C@H](CC5=CC6=CC=CC=C6C=C5)C(=O)NO)C(=O)C7=CC=CC=C7

> <PUBCHEM_CACTVS_TPSA>
298

> <PUBCHEM_MONOISOTOPIC_WEIGHT>
1063.379

> <PUBCHEM_TOTAL_CHARGE>
0

> <PUBCHEM_HEAVY_ATOM_COUNT>
77

> <PUBCHEM_ATOM_DEF_STEREO_COUNT>
4

> <PUBCHEM_ATOM_UDEF_STEREO_COUNT>
0

> <PUBCHEM_BOND_DEF_STEREO_COUNT>
0

> <PUBCHEM_BOND_UDEF_STEREO_COUNT>
0

> <PUBCHEM_ISOTOPIC_ATOM_COUNT>
0

> <PUBCHEM_COMPONENT_COUNT>
1

> <PUBCHEM_CACTVS_TAUTO_COUNT>
128

> <PUBCHEM_COORDINATE_TYPE>
1
5
255

> <PUBCHEM_BONDANNOTATIONS>
21  14  5
22  15  6
28  16  6
27  17  5
29  39  8
29  40  8
34  41  8
34  42  8
36  43  8
36  45  8
37  50  8
37  51  8
39  47  8
40  48  8
41  52  8
42  53  8
43  46  8
45  55  8
46  49  8
46  60  8
47  56  8
48  56  8
49  55  8
49  63  8
50  61  8
51  62  8
52  57  8
53  57  8
60  67  8
61  65  8
62  65  8
63  69  8
66  68  8
66  72  8
67  69  8
68  70  8
68  73  8
70  71  8
70  74  8
71  76  8
72  75  8
73  77  8
74  75  8
76  77  8

$$$$

  SciTegic11201309402D

110119  0  0  0  0            999 V2000
   16.4607   -6.2715    0.0000 C   0  0
   18.0336   -9.1443    0.0000 C   0  0
   27.0199   -9.0897    0.0000 C   0  0
   20.8950   -4.9828    0.0000 C   0  0  1  0  0  0
   18.7674   -6.2508    0.0000 C   0  0
   25.1771   -9.1177    0.0000 C   0  0
   14.4682  -11.2172    0.0000 C   0  0
   18.0260   -6.6701    0.0000 C   0  0  1  0  0  0
   15.9440   -5.5991    0.0000 N   0  0
   19.4912  -17.3821    0.0000 O   0  0
   22.3278  -12.4281    0.0000 C   0  0
   22.3188   -4.1663    0.0000 C   0  0  2  0  0  0
   15.1884  -12.4572    0.0000 C   0  0
   21.5979   -8.7164    0.0000 C   0  0
   26.6092   -7.5040    0.0000 C   0  0
   23.0394   -6.2313    0.0000 C   0  0
   20.2001  -16.1341    0.0000 C   0  0
   18.7717  -16.1452    0.0000 C   0  0
   22.3202   -9.9468    0.0000 C   0  0
   21.6091  -10.3661    0.0000 N   0  0
   27.8546   -7.0432    0.0000 N   0  0
   24.8948   -5.0709    0.0000 C   0  0
   24.4625  -10.3546    0.0000 O   0  0
   23.0514  -13.6537    0.0000 C   0  0
   23.0390  -10.3594    0.0000 O   0  0
   22.3245  -11.6032    0.0000 C   0  0
   13.7574  -11.6346    0.0000 C   0  0
   18.0344   -9.9647    0.0000 S   0  0
   23.0371   -5.4016    0.0000 S   0  0
   17.3235  -10.3794    0.0000 O   0  0
   23.0468  -12.8299    0.0000 C   0  0
   26.2252   -8.8755    0.0000 C   0  0
   18.7610  -12.8516    0.0000 N   0  0
   19.4746  -12.4324    0.0000 C   0  0
   24.4582   -8.7051    0.0000 C   0  0  2  0  0  0
   19.4713  -11.6121    0.0000 C   0  0  1  0  0  0
   21.6162  -12.8378    0.0000 C   0  0
   20.1846  -11.1973    0.0000 N   0  0
   20.1761   -3.7442    0.0000 O   0  0
   20.8990  -11.6099    0.0000 C   0  0
   21.6231  -13.6607    0.0000 C   0  0
   18.0508  -14.0912    0.0000 C   0  0
   22.3247   -7.4892    0.0000 C   0  0
   26.5809   -6.6787    0.0000 C   0  0
   18.7693  -15.3268    0.0000 C   0  0
   19.4788  -14.0845    0.0000 C   0  0
   20.1891  -12.8451    0.0000 O   0  0
   18.7644  -13.6764    0.0000 C   0  0  2  0  0  0
   18.0586  -14.9159    0.0000 N   0  0
   23.0302   -8.7141    0.0000 N   0  0
   22.3344  -14.0727    0.0000 C   0  0
   15.1812   -9.9760    0.0000 N   0  0
   17.3193   -8.7343    0.0000 C   0  0  1  0  0  0
   20.9010   -4.1648    0.0000 C   0  0
   16.6090   -9.9737    0.0000 C   0  0
   24.1048   -5.0522    0.0000 C   0  0
   13.0431  -12.8720    0.0000 O   0  0
   19.4877  -16.5574    0.0000 C   0  0
   20.8721   -7.4897    0.0000 C   0  0
   25.1824   -6.6348    0.0000 C   0  0  2  0  0  0
   25.8872   -7.8781    0.0000 O   0  0
   20.8759   -6.6441    0.0000 C   0  0
   18.7567  -11.2065    0.0000 C   0  0
   21.6153   -3.7589    0.0000 N   0  0
   26.0257   -8.0787    0.0000 C   0  0
   25.1779   -9.9426    0.0000 C   0  0
   23.0487   -2.9329    0.0000 O   0  0
   21.5960   -7.9109    0.0000 C   0  0
   13.7569  -12.4585    0.0000 C   0  0
   17.3321  -13.6786    0.0000 O   0  0
   14.4728  -12.8742    0.0000 C   0  0
   25.1200   -5.8299    0.0000 C   0  0
   22.3247   -6.6523    0.0000 C   0  0
   25.8923  -10.3525    0.0000 N   0  0
   18.7488  -10.3773    0.0000 S   0  0
   15.8989  -11.2108    0.0000 C   0  0
   19.4821  -14.9137    0.0000 C   0  0
   22.3211   -4.9911    0.0000 C   0  0
   23.0450   -3.7620    0.0000 C   0  0
   23.7545   -6.6374    0.0000 C   0  0
   17.3158   -7.9139    0.0000 C   0  0
   27.4047   -7.7282    0.0000 C   0  0
   15.1549   -5.8817    0.0000 C   0  0
   15.1853  -11.6299    0.0000 C   0  0
   22.3193   -9.1264    0.0000 C   0  0  1  0  0  0
   20.1958  -15.3145    0.0000 C   0  0
   24.4548   -7.8804    0.0000 N   0  0
   15.8956  -10.3860    0.0000 C   0  0  2  0  0  0
   25.8890   -6.2200    0.0000 C   0  0
   27.3464   -6.3985    0.0000 C   0  0
   23.7448   -9.1199    0.0000 C   0  0
   16.5971   -7.4970    0.0000 O   0  0
   23.8412   -5.7959    0.0000 N   0  0
   15.1764   -6.7205    0.0000 N   0  0
   25.1728   -7.4656    0.0000 C   0  0
   21.6100  -11.1907    0.0000 C   0  0  1  0  0  0
   16.6012   -9.1465    0.0000 N   0  0
   23.7587   -7.4665    0.0000 O   0  0
   24.4685   -6.2809    0.0000 C   0  0  1  0  0  0
   27.6039   -8.5178    0.0000 C   0  0
   21.6019   -5.3922    0.0000 C   0  0
   18.0292   -7.4903    0.0000 N   0  0
   21.6025   -6.2340    0.0000 C   0  0
   17.3040   -6.2501    0.0000 C   0  0
   15.9754   -6.9585    0.0000 C   0  0
   20.9000  -12.4303    0.0000 O   0  0
   23.7526   -9.9446    0.0000 O   0  0
   20.1562   -5.4052    0.0000 N   0  0
   19.5006   -6.6829    0.0000 O   0  0
   21.4531   -4.6669    0.0000 H   0  0
 21 90  1  0
  6 66  1  0
 73103  1  0
  8104  1  1
 27 69  2  0
 72 22  1  0
 96 26  1  1
 91 35  1  0
 48 33  1  1
 28 75  1  0
  7 27  1  0
 66 23  2  0
 79 93  1  0
 18 58  2  0
 11 37  2  0
 19 85  1  0
 43 73  2  0
 59 62  1  0
 40 96  1  0
 17 86  2  0
 69 57  1  0
 54 39  2  0
 95 61  2  0
 79 12  1  0
  8  5  1  0
 36 63  1  0
 35 87  1  0
 26 11  1  0
  9 83  1  0
 56 93  1  0
 36 34  1  6
 71 13  2  0
 13 84  1  0
 66 74  1  0
 34 47  2  0
 12 64  1  0
 15 65  1  0
 41 51  2  0
 24 31  2  0
 45 18  1  0
 40106  2  0
 87 95  1  0
 99 72  1  6
 51 24  1  0
 19 25  2  0
 80 98  2  0
 53 97  1  6
 78 12  1  0
 68 43  1  0
 83 94  2  0
  3100  2  0
 75 63  1  0
 20 19  1  0
  1  9  1  0
100 82  1  0
 44 15  1  0
 38 40  1  0
 42 70  2  0
 82 15  2  0
 35  6  1  1
 88 76  1  0
 60 89  1  6
 36 38  1  0
 60 99  1  0
 29 78  1  0
 68 59  2  0
 50 91  1  0
 42 49  1  0
 48 46  1  0
 94105  1  0
 88 52  1  6
 22 56  1  0
 89 44  1  0
 82 21  1  0
 37 41  1  0
 79 67  2  0
 34 33  1  0
104  1  1  0
101103  1  0
 90 44  2  0
 91107  2  0
 93 99  1  0
 95 60  1  0
 81102  1  0
 46 77  1  0
 16 80  1  0
  2 28  1  0
 69 71  1  0
105  1  2  0
 99 80  1  0
 31 11  1  0
 55 97  1  0
 81 92  2  0
 64 54  1  0
 32  3  1  0
 55 30  2  0
 53  2  1  0
 48 42  1  0
 85 14  1  6
 84 76  1  0
 29 16  1  0
103 62  2  0
102  8  1  0
  4101  1  1
 85 50  1  0
 65 32  2  0
 84  7  2  0
 86 77  1  0
 96 20  1  0
 88 55  1  0
 54  4  1  0
 77 45  2  0
 58 17  1  0
 58 10  1  0
 53 81  1  0
  4108  1  0
  5109  2  0
  5108  1  0
 12110  1  6
M  END
> <chembl_id>
CHEMBL2323800

$$$$

  SciTegic06051313552D

 77 83  0  0  0  0            999 V2000
   17.1141   -4.4755    0.0000 C   0  0
   17.0754   -3.6422    0.0000 C   0  0
   16.3384   -3.2614    0.0000 C   0  0
   15.6441   -3.7063    0.0000 C   0  0
   15.6827   -4.5363    0.0000 C   0  0
   14.9924   -4.9746    0.0000 C   0  0
   15.0270   -5.8113    0.0000 C   0  0
   15.7605   -6.1868    0.0000 C   0  0
   16.4591   -5.7416    0.0000 C   0  0
   16.4197   -4.9171    0.0000 C   0  0
   17.8539   -4.8432    0.0000 S   0  0
   14.2523   -4.6026    0.0000 N   0  0
   13.5592   -5.0627    0.0000 C   0  0
   12.8191   -4.6908    0.0000 C   0  0
   12.1302   -5.1506    0.0000 N   0  0
   18.5684   -4.4307    0.0000 O   0  0
   18.2664   -5.5577    0.0000 O   0  0
   17.4824   -5.5907    0.0000 O   0  0
    8.5373   -4.7354    0.0000 N   0  0
    9.2626   -5.1507    0.0000 C   0  0  2  0  0  0
    9.9784   -6.3923    0.0000 O   0  0
    9.2626   -5.9757    0.0000 C   0  0
    9.9784   -4.7340    0.0000 C   0  0
   10.6943   -5.1507    0.0000 C   0  0
   11.4102   -4.7340    0.0000 C   0  0
    8.5425   -6.3923    0.0000 N   0  0
    8.5252   -3.9072    0.0000 C   0  0
    7.8062   -3.5027    0.0000 O   0  0
    9.2394   -3.4877    0.0000 C   0  0
    8.5425   -7.2173    0.0000 C   0  0  1  0  0  0
    7.8267   -7.6340    0.0000 C   0  0
    9.2626   -7.6340    0.0000 C   0  0
    9.2626   -8.4590    0.0000 C   0  0
    8.5421   -8.8667    0.0000 C   0  0
    8.5402   -9.6947    0.0000 C   0  0
    9.2605  -10.1096    0.0000 C   0  0
    9.9805   -9.6916    0.0000 C   0  0
    9.9771   -8.8698    0.0000 C   0  0
    9.2605  -10.9388    0.0000 O   0  0
    7.8267   -8.4590    0.0000 O   0  0
    7.1108   -7.2173    0.0000 N   0  0
   11.4091   -3.9090    0.0000 O   0  0
    7.1137   -6.3923    0.0000 C   0  0
    6.3949   -7.6273    0.0000 C   0  0  2  0  0  0
    7.8296   -5.9823    0.0000 O   0  0
    6.4007   -5.9773    0.0000 C   0  0
    6.4051   -5.1537    0.0000 C   0  0
    5.6929   -4.7388    0.0000 C   0  0
    4.9760   -5.1488    0.0000 C   0  0
    4.9757   -5.9781    0.0000 C   0  0
    5.6819   -7.2123    0.0000 C   0  0
    6.3920   -8.4523    0.0000 C   0  0
    7.1050   -8.8673    0.0000 O   0  0
    5.6848   -6.3873    0.0000 C   0  0
    4.9660   -7.6223    0.0000 C   0  0
    4.2555   -7.2039    0.0000 C   0  0
    3.5401   -7.6132    0.0000 C   0  0
    3.5368   -8.4390    0.0000 C   0  0
    4.2548   -8.8539    0.0000 C   0  0
    5.6761   -8.8623    0.0000 N   0  0
    4.9631   -8.4473    0.0000 C   0  0
    5.6732   -9.6873    0.0000 C   0  0  2  0  0  0
    4.9573  -10.0973    0.0000 C   0  0
    6.3862  -10.1023    0.0000 C   0  0
    6.3833  -10.9273    0.0000 N   0  0
    7.1021   -9.6923    0.0000 O   0  0
    7.0963  -11.3423    0.0000 O   0  0
    4.9544  -10.9223    0.0000 C   0  0
    4.2363  -11.3275    0.0000 C   0  0
    5.6649  -12.1532    0.0000 C   0  0
    5.6646  -11.3303    0.0000 C   0  0
    4.9466  -12.5676    0.0000 C   0  0
    4.2365  -12.1533    0.0000 C   0  0
    3.5247  -12.5611    0.0000 C   0  0
    3.5220  -13.3831    0.0000 C   0  0
    4.2368  -13.7955    0.0000 C   0  0
    4.9456  -13.3853    0.0000 C   0  0
  1  2  1  0
  2  3  2  0
  3  4  1  0
  4  5  2  0
  5  6  1  0
  6  7  2  0
  7  8  1  0
  8  9  2  0
  9 10  1  0
  1 10  2  0
  5 10  1  0
  1 11  1  0
 13 14  1  0
 14 15  1  0
 12 13  1  0
  6 12  1  0
 11 16  1  0
 11 17  2  0
 11 18  2  0
 22 26  1  0
 19 20  1  0
 20 22  1  0
 22 21  2  0
 20 23  1  1
 23 24  1  0
 24 25  1  0
 25 15  1  0
 19 27  1  0
 27 28  2  0
 27 29  1  0
 30 26  1  6
 30 31  1  0
 30 32  1  0
 32 33  1  0
 33 34  2  0
 34 35  1  0
 35 36  2  0
 36 37  1  0
 37 38  2  0
 38 33  1  0
 36 39  1  0
 31 40  2  0
 31 41  1  0
 25 42  2  0
 41 43  1  0
 41 44  1  0
 43 45  2  0
 43 46  1  0
 46 47  2  0
 47 48  1  0
 48 49  2  0
 49 50  1  0
 50 54  2  0
 54 46  1  0
 44 51  1  1
 44 52  1  0
 52 53  2  0
 51 55  1  0
 55 56  2  0
 56 57  1  0
 57 58  2  0
 58 59  1  0
 59 61  2  0
 61 55  1  0
 52 60  1  0
 60 62  1  0
 62 63  1  1
 62 64  1  0
 64 65  1  0
 64 66  2  0
 65 67  1  0
 63 68  1  0
 68 69  2  0
 69 73  1  0
 72 70  1  0
 70 71  2  0
 71 68  1  0
 72 73  1  0
 73 74  2  0
 74 75  1  0
 75 76  2  0
 76 77  1  0
 77 72  2  0
M  END
> <chembl_id>
CHEMBL2324206

$$$$
